# File generated by Flopy version 3.3.2 on 02/05/2021 at 02:19:18.
BEGIN options
END options

BEGIN dimensions
  MAXBOUND  51
END dimensions

BEGIN period  1
  1 52 1      78.50000000       0.30000000
  1 52 2      78.70000000       0.30000000
  1 52 3      78.90000000       0.30000000
  1 52 4      79.10000000       0.30000000
  1 52 5      79.30000000       0.30000000
  1 52 6      79.50000000       0.30000000
  1 52 7      79.70000000       0.30000000
  1 52 8      79.90000000       0.30000000
  1 52 9      80.10000000       0.30000000
  1 52 10      80.30000000       0.30000000
  1 52 11      80.50000000       0.30000000
  1 52 12      80.70000000       0.30000000
  1 52 13      80.90000000       0.30000000
  1 52 14      81.10000000       0.30000000
  1 52 15      81.30000000       0.30000000
  1 52 16      81.50000000       0.30000000
  1 52 17      81.70000000       0.30000000
  1 52 18      81.90000000       0.30000000
  1 52 19      82.10000000       0.30000000
  1 52 20      82.30000000       0.30000000
  1 52 21      82.50000000       0.30000000
  1 52 22      82.70000000       0.30000000
  1 52 23      82.90000000       0.30000000
  1 52 24      83.10000000       0.30000000
  1 52 25      83.30000000       0.30000000
  1 52 26      83.50000000       0.30000000
  1 52 27      83.70000000       0.30000000
  1 52 28      83.90000000       0.30000000
  1 52 29      84.10000000       0.30000000
  1 52 30      84.30000000       0.30000000
  1 52 31      84.50000000       0.30000000
  1 52 32      84.70000000       0.30000000
  1 52 33      84.90000000       0.30000000
  1 52 34      85.10000000       0.30000000
  1 52 35      85.30000000       0.30000000
  1 52 36      85.50000000       0.30000000
  1 52 37      85.70000000       0.30000000
  1 52 38      85.90000000       0.30000000
  1 52 39      86.10000000       0.30000000
  1 52 40      86.30000000       0.30000000
  1 52 41      86.50000000       0.30000000
  1 52 42      86.70000000       0.30000000
  1 52 43      86.90000000       0.30000000
  1 52 44      87.10000000       0.30000000
  1 52 45      87.30000000       0.30000000
  1 52 46      87.50000000       0.30000000
  1 52 47      87.70000000       0.30000000
  1 52 48      87.90000000       0.30000000
  1 52 49      88.10000000       0.30000000
  1 52 50      88.30000000       0.30000000
  1 52 51      88.50000000       0.30000000
END period  1

