# File generated by Flopy version 3.3.2 on 02/05/2021 at 02:19:17.
BEGIN options
END options

BEGIN packages
  DIS6  Ejercicio1_01.dis  dis
  IC6  Ejercicio1_01.ic  ic
  NPF6  Ejercicio1_01.npf  npf
  CHD6  Ejercicio1_01.chd  chd_0
  DRN6  Ejercicio1_01.drn  drn_0
  OC6  Ejercicio1_01.oc  oc
END packages

