# File generated by Flopy version 3.3.2 on 01/29/2021 at 13:19:55.
BEGIN options
  BUDGET  FILEOUT  Ejercicio1_01.cbb
  HEAD  FILEOUT  Ejercicio1_01.hds
END options

BEGIN period  1
  SAVE  HEAD  ALL
  SAVE  BUDGET  ALL
  PRINT  HEAD  LAST
END period  1

