# File generated by Flopy version 3.3.2 on 01/29/2021 at 13:05:18.
BEGIN options
  COMPLEXITY  simple
END options

