# File generated by Flopy version 3.3.2 on 01/31/2021 at 00:06:48.
BEGIN options
END options

BEGIN packages
  DIS6  Ejercicio1_01.dis  dis
  IC6  Ejercicio1_01.ic  ic
  NPF6  Ejercicio1_01.npf  npf
  CHD6  Ejercicio1_01.chd  chd_0
  OC6  Ejercicio1_01.oc  oc
END packages

