# File generated by Flopy version 3.3.2 on 02/05/2021 at 02:19:18.
BEGIN options
  BUDGET  FILEOUT  Ejercicio1_01.cbb
  HEAD  FILEOUT  Ejercicio1_01.hds
END options

BEGIN period  1
  SAVE  HEAD  ALL
  SAVE  BUDGET  ALL
  PRINT  HEAD  LAST
END period  1

