# File generated by Flopy version 3.3.2 on 02/05/2021 at 02:19:17.
BEGIN options
END options

BEGIN timing
  TDIS6  Ejercicio1_01.tdis
END timing

BEGIN models
  gwf6  Ejercicio1_01.nam  Ejercicio1_01
END models

BEGIN exchanges
END exchanges

BEGIN solutiongroup  1
  ims6  Ejercicio1_01.ims  Ejercicio1_01
END solutiongroup  1

